Version 4
SHEET 1 912 680
WIRE 320 64 320 32
WIRE 320 176 320 144
WIRE 448 176 320 176
WIRE 480 176 448 176
WIRE 640 176 640 144
WIRE 320 192 320 176
WIRE 608 192 576 192
WIRE 720 208 672 208
WIRE 480 224 480 176
WIRE 608 224 480 224
WIRE 576 288 576 192
WIRE 720 288 720 208
WIRE 720 288 576 288
FLAG 320 272 0
FLAG 320 32 0
FLAG 128 0 0
FLAG 128 -80 5V
FLAG 640 64 5V
FLAG 640 240 0
FLAG 448 176 in
FLAG 720 208 out
FLAG 576 144 0
SYMBOL current 320 272 M180
WINDOW 3 24 80 Invisible 2
WINDOW 123 0 0 Left 0
WINDOW 39 0 0 Left 0
SYMATTR Value EXP(13u 1.3m 200n 1n 0 1000n)
SYMATTR InstName I1
SYMBOL res 304 48 R0
SYMATTR InstName R1
SYMATTR Value 2k
SYMBOL voltage 128 -96 R0
WINDOW 123 0 0 Left 0
WINDOW 39 0 0 Left 0
SYMATTR InstName V1
SYMATTR Value 5
SYMBOL OpAmps\\ADA4891-1 640 144 R0
SYMATTR InstName U1
SYMBOL res 624 48 R0
SYMATTR InstName R2
SYMATTR Value 100
SYMBOL cap 640 128 R90
WINDOW 0 0 32 VBottom 2
WINDOW 3 32 32 VTop 2
SYMATTR InstName C1
SYMATTR Value 1µ
TEXT 64 136 Left 2 !.tran 10u
TEXT -56 304 Left 2 !.lib opa314.lib
