Version 4
SHEET 1 1640 1352
WIRE 352 48 304 48
WIRE 480 48 432 48
WIRE -416 64 -448 64
WIRE -304 64 -336 64
WIRE -192 64 -224 64
WIRE -96 64 -112 64
WIRE -80 64 -96 64
WIRE 32 64 0 64
WIRE -96 112 -96 64
WIRE -304 160 -304 64
WIRE 112 160 -304 160
WIRE 304 160 304 48
WIRE 336 160 304 160
WIRE 432 160 400 160
WIRE 544 160 432 160
WIRE 688 160 544 160
WIRE 912 160 688 160
WIRE 928 160 912 160
WIRE 1040 160 1008 160
WIRE 1120 160 1040 160
WIRE 1328 160 1120 160
WIRE 304 176 304 160
WIRE 432 176 432 160
WIRE 1328 192 1328 160
WIRE -224 208 -224 64
WIRE -128 208 -224 208
WIRE 32 208 32 64
WIRE 32 208 -64 208
WIRE 688 224 688 160
WIRE -224 256 -224 208
WIRE 32 256 32 208
WIRE 304 272 304 240
WIRE 336 272 304 272
WIRE 432 272 432 240
WIRE 432 272 400 272
WIRE 480 272 480 48
WIRE 480 272 432 272
WIRE 1456 272 1328 272
WIRE 1456 288 1456 272
WIRE -560 304 -608 304
WIRE -448 304 -448 64
WIRE -448 304 -480 304
WIRE -288 304 -448 304
WIRE 112 304 112 160
WIRE 112 304 96 304
WIRE -96 352 -224 352
WIRE 32 352 -96 352
WIRE 1456 352 1328 352
WIRE 1456 368 1456 352
WIRE 688 416 688 288
WIRE 1456 432 1328 432
WIRE -160 448 -384 448
WIRE -96 448 -96 352
WIRE -96 448 -160 448
WIRE 1456 448 1456 432
WIRE -384 544 -384 448
WIRE 688 560 688 496
WIRE 592 608 512 608
WIRE 688 608 688 560
WIRE 688 608 592 608
WIRE 448 624 384 624
WIRE 544 640 512 640
WIRE 544 672 544 640
WIRE 688 688 688 608
WIRE 384 704 384 624
WIRE -384 720 -384 624
WIRE -384 720 -464 720
WIRE -384 752 -384 720
WIRE -336 752 -384 752
WIRE -224 752 -272 752
WIRE -384 784 -384 752
WIRE -384 784 -464 784
WIRE 384 832 384 784
WIRE 688 832 688 768
WIRE 688 832 384 832
WIRE -784 848 -848 848
WIRE -448 848 -464 848
WIRE -352 848 -368 848
WIRE -784 912 -800 912
WIRE -368 912 -464 912
WIRE 384 976 384 832
WIRE 384 976 -464 976
WIRE -816 1008 -848 1008
WIRE -800 1008 -800 912
WIRE -800 1008 -816 1008
WIRE -544 1072 -544 1040
WIRE -544 1184 -544 1152
FLAG -848 96 0
FLAG -848 16 5V
FLAG -96 112 5V
FLAG -608 304 5V
FLAG 480 592 5V
FLAG 304 272 0
FLAG 1040 96 0
FLAG 912 96 0
FLAG 1120 160 FILT
FLAG 544 160 OUT
FLAG 592 608 FB_VGND
FLAG -624 656 5V
FLAG -352 848 0
FLAG -288 912 0
FLAG -544 1184 0
FLAG -704 1040 0
FLAG -928 848 0
FLAG -848 784 0
FLAG 544 672 0
FLAG -160 448 em
FLAG -224 752 5V
FLAG 384 624 FB
FLAG -816 1008 Vc
FLAG 1328 512 0
FLAG 1456 512 0
FLAG -992 1008 0
FLAG 480 656 0
FLAG 752 560 0
SYMBOL ind2 -208 80 R270
WINDOW 0 32 56 VTop 2
WINDOW 3 4 56 VBottom 2
SYMATTR InstName Lp1
SYMATTR Value 5.5µ
SYMATTR Type ind
SYMATTR SpiceLine Rser=0.065
SYMBOL ind2 -96 80 R270
WINDOW 0 32 56 VTop 2
WINDOW 3 4 56 VBottom 2
SYMATTR InstName Lp2
SYMATTR Value 5.5µ
SYMATTR Type ind
SYMATTR SpiceLine Rser=0.065
SYMBOL ind2 448 64 M270
WINDOW 0 32 56 VTop 2
WINDOW 3 4 56 VBottom 2
SYMATTR InstName Ls
SYMATTR Value 220m
SYMATTR Type ind
SYMATTR SpiceLine Rser=176
SYMBOL npn -288 256 R0
SYMATTR InstName Q1
SYMATTR Value 2N2222
SYMBOL voltage -848 0 R0
WINDOW 123 0 0 Left 0
WINDOW 39 0 0 Left 0
SYMATTR InstName V1
SYMATTR Value 5
SYMBOL cap -64 192 R90
WINDOW 0 0 32 VBottom 2
WINDOW 3 32 32 VTop 2
SYMATTR InstName C1
SYMATTR Value 220n
SYMBOL npn 96 256 M0
SYMATTR InstName Q2
SYMATTR Value 2N2222
SYMBOL ind2 -320 80 M270
WINDOW 0 32 56 VTop 2
WINDOW 3 4 56 VBottom 2
SYMATTR InstName Lfb
SYMATTR Value 1.375µ
SYMATTR Type ind
SYMATTR SpiceLine Rser=0.1
SYMBOL res -464 288 R90
WINDOW 0 0 56 VBottom 2
WINDOW 3 32 56 VTop 2
SYMATTR InstName R2
SYMATTR Value 820
SYMBOL res 704 784 R180
WINDOW 0 36 76 Left 2
WINDOW 3 36 40 Left 2
SYMATTR InstName R6
SYMATTR Value 15k
SYMBOL diode 288 176 R0
SYMATTR InstName D1
SYMATTR Value S1Y
SYMBOL diode 416 176 R0
SYMATTR InstName D2
SYMATTR Value S1Y
SYMBOL diode 400 144 R90
WINDOW 0 0 32 VBottom 2
WINDOW 3 32 32 VTop 2
SYMATTR InstName D3
SYMATTR Value S1Y
SYMBOL diode 400 256 R90
WINDOW 0 0 32 VBottom 2
WINDOW 3 32 32 VTop 2
SYMATTR InstName D4
SYMATTR Value S1Y
SYMBOL cap 928 160 R180
WINDOW 39 24 84 Left 2
SYMATTR InstName C4
SYMATTR Value 33n
SYMATTR SpiceLine IC=-750
SYMBOL cap 1024 160 M180
WINDOW 39 24 84 Left 2
SYMATTR InstName C5
SYMATTR Value 15n
SYMATTR SpiceLine IC=-750
SYMBOL res 912 144 M90
WINDOW 0 0 56 VBottom 2
WINDOW 3 32 56 VTop 2
SYMATTR InstName R1
SYMATTR Value 10k
SYMBOL res 1312 176 R0
SYMATTR InstName R3
SYMATTR Value 1980k
SYMBOL fra 688 288 M0
SYMATTR InstName @1
SYMATTR SpiceLine delay=10m fstart=100 fend=10K oct=2 nmax=1 pp0=2 pp1=0.5 f0=1 f1=1k tavgmin=1m tsettle=1m
SYMBOL PowerProducts\\LT1534 -624 848 R0
SYMATTR InstName U1
SYMBOL ind -400 528 R0
SYMATTR InstName L1
SYMATTR Value 600µ
SYMBOL res -352 832 R90
WINDOW 0 0 56 VBottom 2
WINDOW 3 32 56 VTop 2
SYMATTR InstName R4
SYMATTR Value 24k
SYMBOL res -272 896 R90
WINDOW 0 0 56 VBottom 2
WINDOW 3 32 56 VTop 2
SYMATTR InstName R5
SYMATTR Value 39k
SYMBOL res -832 832 R90
WINDOW 0 0 56 VBottom 2
WINDOW 3 32 56 VTop 2
SYMATTR InstName R8
SYMATTR Value 16.9k
SYMBOL cap -784 768 R90
WINDOW 0 0 32 VBottom 2
WINDOW 3 32 32 VTop 2
SYMATTR InstName C3
SYMATTR Value 820p
SYMBOL ind -560 1056 R0
SYMATTR InstName L2
SYMATTR Value 28n
SYMBOL schottky -336 768 R270
WINDOW 0 32 32 VTop 2
WINDOW 3 0 32 VBottom 2
SYMATTR InstName D5
SYMATTR Value 1N5817
SYMATTR Description Diode
SYMATTR Type diode
SYMBOL res -832 992 R90
WINDOW 0 0 56 VBottom 2
WINDOW 3 32 56 VTop 2
SYMATTR InstName R9
SYMATTR Value 22k
SYMBOL cap -928 992 R90
WINDOW 0 0 32 VBottom 2
WINDOW 3 32 32 VTop 2
SYMATTR InstName C8
SYMATTR Value 10n
SYMBOL res 1312 256 R0
SYMATTR InstName R10
SYMATTR Value 330k
SYMBOL res 1312 336 R0
SYMATTR InstName R11
SYMATTR Value 330k
SYMBOL res 1312 416 R0
SYMATTR InstName R12
SYMATTR Value 160k
SYMBOL cap 1440 288 R0
SYMATTR InstName C9
SYMATTR Value 10n
SYMBOL cap 1440 368 R0
SYMATTR InstName C10
SYMATTR Value 10n
SYMBOL cap 1440 448 R0
SYMATTR InstName C11
SYMATTR Value 10n
SYMBOL res 672 400 R0
SYMATTR InstName R13
SYMATTR Value 9Meg
SYMBOL OpAmps\\opamp2 480 560 M0
SYMATTR InstName U2
SYMATTR Value opa314
SYMBOL res 368 688 R0
SYMATTR InstName R7
SYMATTR Value 100
SYMBOL cap 752 544 R90
WINDOW 0 0 32 VBottom 2
WINDOW 3 32 32 VTop 2
SYMATTR InstName C2
SYMATTR Value 15p
TEXT -280 -56 Left 2 !K Lp1 Lp2 Ls Lfb 0.99
TEXT -1288 184 Left 2 !.tran 10m
TEXT -1288 216 Left 2 ;.fra
TEXT 1480 128 Left 2 ;PMT
TEXT -1280 352 Left 2 !.lib S1Y.lib\n.lib opa314.lib
RECTANGLE Normal 1536 576 1264 112 2
