.MODEL S1Y D (
+LEVEL    = 1              IS       = 2.95519e-11    
+ISW      = 1e-18          RS       = 0.0430206      N        = 0.97224        
+BV       = 2400           IBV      = 5e-05          CJO      = 5.07e-11       
+VJ       = 0.20661        MJ       = 0.228721       FC       = 0.5            
+CJSW     = 1e-10          VJSW     = 0.8            MJSW     = 0.5            
+FCS      = 0.5            AF       = 1              XTI      = 2.79824        
+EG       = 1.16822        TRS1     = 4.9024e-05     TRS2     = 2.15095e-05    
+ISR      = 5.33691e-09    IK       = 4.22941e-06    NR       = 2.00699        
+KF       = 0              TNOM     = 27             TT       = 4.57946e-06 )