Version 4
SHEET 1 1208 680
WIRE 784 64 784 0
WIRE 784 192 784 144
WIRE 784 192 752 192
WIRE 784 224 784 192
WIRE 848 224 784 224
WIRE 912 224 848 224
WIRE 1008 240 976 240
WIRE 1120 240 1088 240
WIRE 912 256 896 256
WIRE 784 272 784 224
WIRE 784 272 704 272
WIRE 784 288 784 272
WIRE 704 304 704 272
WIRE 1120 304 1120 240
WIRE 704 384 704 368
WIRE 784 384 784 368
WIRE 784 384 704 384
WIRE 784 416 784 384
WIRE 816 416 784 416
WIRE 1056 416 896 416
WIRE 1120 416 1120 368
WIRE 1120 416 1056 416
FLAG 400 32 0
FLAG 400 -48 4V5
FLAG 944 208 4V5
FLAG 896 256 0
FLAG 944 272 0
FLAG 688 192 0
FLAG 784 -80 0
FLAG 1056 416 FB
FLAG 848 224 FB_VGND
SYMBOL OpAmps\\UniversalOpAmp1 944 240 R0
SYMATTR InstName U1
SYMATTR SpiceModel OPA314
SYMATTR Value2 ""
SYMATTR SpiceLine ""
SYMBOL voltage 400 -64 R0
WINDOW 123 0 0 Left 0
WINDOW 39 0 0 Left 0
SYMATTR InstName V1
SYMATTR Value 4.5
SYMBOL res 1104 224 R90
WINDOW 0 0 56 VBottom 2
WINDOW 3 32 56 VTop 2
SYMATTR InstName R1
SYMATTR Value 43
SYMBOL res 768 48 R0
SYMATTR InstName R2
SYMATTR Value 9Meg
SYMBOL res 768 272 R0
SYMATTR InstName R3
SYMATTR Value 13.891k
SYMBOL cap 752 176 R90
WINDOW 0 0 32 VBottom 2
WINDOW 3 32 32 VTop 2
SYMATTR InstName C1
SYMATTR Value 20p
SYMBOL voltage 784 16 R180
WINDOW 0 24 96 Left 2
WINDOW 3 -421 79 Left 2
WINDOW 123 0 0 Left 0
WINDOW 39 0 0 Left 0
SYMATTR InstName V2
SYMATTR Value SINE(-775 0 100k 0 0 0 10000)
SYMBOL fra 1120 368 R0
SYMATTR InstName @1
SYMATTR SpiceLine delay=500u fstart=100k fend=3Meg oct=4 pp0=1m pp1=1m f0=1 f1=100k tavgmin=100u
SYMBOL cap 688 304 R0
SYMATTR InstName C2
SYMATTR Value 1n
SYMBOL res 912 400 R90
WINDOW 0 0 56 VBottom 2
WINDOW 3 32 56 VTop 2
SYMATTR InstName R4
SYMATTR Value 0
TEXT 32 88 Left 2 !.lib opa314.lib
TEXT 24 464 Left 2 ;.tran 1m
TEXT 24 496 Left 2 !.fra
